<routes>
        <vType
            id="typeWE"
            accel="0.8"
            decel="4.5"
            sigma="0.5"
            length="5"
            minGap="2.5"
            maxSpeed="5.67"
            guiShape="passenger"/>

        <route id="right" edges="12 23 34" />
    <vehicle id="right_0" type="typeWE" route="right" depart="1" />
    <vehicle id="right_1" type="typeWE" route="right" depart="7" />
    <vehicle id="right_2" type="typeWE" route="right" depart="9" />
    <vehicle id="right_3" type="typeWE" route="right" depart="12" />
    <vehicle id="right_4" type="typeWE" route="right" depart="19" />
    <vehicle id="right_5" type="typeWE" route="right" depart="26" />
    <vehicle id="right_6" type="typeWE" route="right" depart="27" />
    <vehicle id="right_7" type="typeWE" route="right" depart="41" />
    <vehicle id="right_8" type="typeWE" route="right" depart="44" />
    <vehicle id="right_9" type="typeWE" route="right" depart="67" />
    <vehicle id="right_10" type="typeWE" route="right" depart="88" />
    <vehicle id="right_11" type="typeWE" route="right" depart="89" />
    <vehicle id="right_12" type="typeWE" route="right" depart="94" />
    <vehicle id="right_13" type="typeWE" route="right" depart="100" />
    <vehicle id="right_14" type="typeWE" route="right" depart="124" />
    <vehicle id="right_15" type="typeWE" route="right" depart="126" />
    <vehicle id="right_16" type="typeWE" route="right" depart="131" />
    <vehicle id="right_17" type="typeWE" route="right" depart="134" />
    <vehicle id="right_18" type="typeWE" route="right" depart="136" />
    <vehicle id="right_19" type="typeWE" route="right" depart="160" />
    <vehicle id="right_20" type="typeWE" route="right" depart="165" />
    <vehicle id="right_21" type="typeWE" route="right" depart="176" />
    <vehicle id="right_22" type="typeWE" route="right" depart="183" />
    <vehicle id="right_23" type="typeWE" route="right" depart="197" />
    <vehicle id="right_24" type="typeWE" route="right" depart="207" />
    <vehicle id="right_25" type="typeWE" route="right" depart="224" />
    <vehicle id="right_26" type="typeWE" route="right" depart="230" />
    <vehicle id="right_27" type="typeWE" route="right" depart="252" />
    <vehicle id="right_28" type="typeWE" route="right" depart="256" />
    <vehicle id="right_29" type="typeWE" route="right" depart="269" />
    <vehicle id="right_30" type="typeWE" route="right" depart="287" />
    <vehicle id="right_31" type="typeWE" route="right" depart="290" />
    <vehicle id="right_32" type="typeWE" route="right" depart="297" />
    <vehicle id="right_33" type="typeWE" route="right" depart="298" />
    <vehicle id="right_34" type="typeWE" route="right" depart="324" />
    <vehicle id="right_35" type="typeWE" route="right" depart="342" />
    <vehicle id="right_36" type="typeWE" route="right" depart="368" />
    <vehicle id="right_37" type="typeWE" route="right" depart="375" />
    <vehicle id="right_38" type="typeWE" route="right" depart="394" />
    <vehicle id="right_39" type="typeWE" route="right" depart="406" />
    <vehicle id="right_40" type="typeWE" route="right" depart="415" />
    <vehicle id="right_41" type="typeWE" route="right" depart="419" />
    <vehicle id="right_42" type="typeWE" route="right" depart="427" />
    <vehicle id="right_43" type="typeWE" route="right" depart="435" />
    <vehicle id="right_44" type="typeWE" route="right" depart="460" />
    <vehicle id="right_45" type="typeWE" route="right" depart="469" />
    <vehicle id="right_46" type="typeWE" route="right" depart="481" />
    <vehicle id="right_47" type="typeWE" route="right" depart="493" />
    <vehicle id="right_48" type="typeWE" route="right" depart="501" />
    <vehicle id="right_49" type="typeWE" route="right" depart="504" />
    <vehicle id="right_50" type="typeWE" route="right" depart="508" />
    <vehicle id="right_51" type="typeWE" route="right" depart="517" />
    <vehicle id="right_52" type="typeWE" route="right" depart="518" />
    <vehicle id="right_53" type="typeWE" route="right" depart="528" />
    <vehicle id="right_54" type="typeWE" route="right" depart="543" />
    <vehicle id="right_55" type="typeWE" route="right" depart="549" />
    <vehicle id="right_56" type="typeWE" route="right" depart="583" />
    <vehicle id="right_57" type="typeWE" route="right" depart="589" />
    <vehicle id="right_58" type="typeWE" route="right" depart="598" />
    <vehicle id="right_59" type="typeWE" route="right" depart="600" />
    <vehicle id="right_60" type="typeWE" route="right" depart="608" />
    <vehicle id="right_61" type="typeWE" route="right" depart="637" />
    <vehicle id="right_62" type="typeWE" route="right" depart="651" />
    <vehicle id="right_63" type="typeWE" route="right" depart="656" />
    <vehicle id="right_64" type="typeWE" route="right" depart="658" />
    <vehicle id="right_65" type="typeWE" route="right" depart="683" />
    <vehicle id="right_66" type="typeWE" route="right" depart="684" />
    <vehicle id="right_67" type="typeWE" route="right" depart="703" />
    <vehicle id="right_68" type="typeWE" route="right" depart="715" />
    <vehicle id="right_69" type="typeWE" route="right" depart="716" />
    <vehicle id="right_70" type="typeWE" route="right" depart="720" />
    <vehicle id="right_71" type="typeWE" route="right" depart="728" />
    <vehicle id="right_72" type="typeWE" route="right" depart="737" />
    <vehicle id="right_73" type="typeWE" route="right" depart="775" />
    <vehicle id="right_74" type="typeWE" route="right" depart="817" />
    <vehicle id="right_75" type="typeWE" route="right" depart="826" />
    <vehicle id="right_76" type="typeWE" route="right" depart="851" />
    <vehicle id="right_77" type="typeWE" route="right" depart="852" />
    <vehicle id="right_78" type="typeWE" route="right" depart="858" />
    <vehicle id="right_79" type="typeWE" route="right" depart="864" />
    <vehicle id="right_80" type="typeWE" route="right" depart="873" />
    <vehicle id="right_81" type="typeWE" route="right" depart="882" />
</routes>
