<?xml version="1.0" encoding="UTF-8"?>
<nodes>
   <node id="1" x="0.0" y="0.0"  type="traffic_light"/>
   <node id="2" x="+5.0" y="0.0" type="priority"/>
   <node id="3" x="+150.0" y="0.0" type="priority"/>
   <node id="4" x="+160.0" y="0.0" type="priority"/>

   <node id="5" x="0.0" y="7.0"  type="traffic_light"/>
   <node id="6" x="+5.0" y="7.0" type="priority"/>
   <node id="7" x="+150.0" y="7.0" type="priority"/>
   <node id="8" x="+160.0" y="7.0" type="priority"/>
</nodes>
