<?xml version="1.0" encoding="UTF-8"?>

<!-- generated on Fri Jul  6 09:40:07 2018 by SUMO netconvert Version 0.32.0
<?xml version="1.0" encoding="UTF-8"?>

<configuration xmlns:xsi="http://www.w3.org/2001/XMLSchema-instance" xsi:noNamespaceSchemaLocation="http://sumo.dlr.de/xsd/netconvertConfiguration.xsd">

    <input>
        <node-files value="cross.nod.xml"/>
        <edge-files value="cross.edg2.xml"/>
        <connection-files value="cross.con.xml"/>
    </input>

    <output>
        <output-file value="cross2.net.xml"/>
    </output>

    <report>
        <verbose value="true"/>
    </report>

</configuration>
-->

<net version="0.27" xmlns:xsi="http://www.w3.org/2001/XMLSchema-instance" xsi:noNamespaceSchemaLocation="http://sumo.dlr.de/xsd/net_file.xsd">

    <location netOffset="0.00,0.00" convBoundary="0.00,0.00,160.00,0.00" origBoundary="0.00,0.00,160.00,7.00" projParameter="!"/>

    <edge id=":1_0" function="internal">
        <lane id=":1_0_0" index="0" speed="15.28" length="4.82" shape="0.00,1.65 -1.24,0.83 -1.65,0.00 -1.24,-0.83 0.00,-1.65"/>
    </edge>
    <edge id=":2_0" function="internal">
        <lane id=":2_0_0" index="0" speed="11.11" length="0.10" shape="5.00,4.95 5.00,4.95"/>
        <lane id=":2_0_1" index="1" speed="11.11" length="0.10" shape="5.00,1.65 5.00,1.65"/>
    </edge>
    <edge id=":2_2" function="internal">
        <lane id=":2_2_0" index="0" speed="15.28" length="4.82" shape="5.00,1.65 3.76,0.83 3.35,0.00 3.76,-0.83 5.00,-1.65"/>
    </edge>
    <edge id=":2_3" function="internal">
        <lane id=":2_3_0" index="0" speed="19.44" length="0.10" shape="5.00,-4.95 5.00,-4.95"/>
        <lane id=":2_3_1" index="1" speed="19.44" length="0.10" shape="5.00,-1.65 5.00,-1.65"/>
    </edge>
    <edge id=":3_0" function="internal">
        <lane id=":3_0_0" index="0" speed="11.11" length="0.10" shape="150.00,4.95 150.00,4.95"/>
        <lane id=":3_0_1" index="1" speed="11.11" length="0.10" shape="150.00,1.65 150.00,1.65"/>
    </edge>
    <edge id=":3_2" function="internal">
        <lane id=":3_2_0" index="0" speed="15.28" length="4.82" shape="150.00,1.65 148.76,0.83 148.35,0.00 148.76,-0.83 150.00,-1.65"/>
    </edge>
    <edge id=":3_3" function="internal">
        <lane id=":3_3_0" index="0" speed="19.44" length="0.10" shape="150.00,-4.95 150.00,-4.95"/>
        <lane id=":3_3_1" index="1" speed="19.44" length="0.10" shape="150.00,-1.65 150.00,-1.65"/>
    </edge>
    <edge id=":4_0" function="internal">
        <lane id=":4_0_0" index="0" speed="15.28" length="4.82" shape="160.00,-1.65 161.24,-0.83 161.65,0.00 161.24,0.83 160.00,1.65"/>
    </edge>

    <edge id="12" from="1" to="2" priority="78">
        <lane id="12_0" index="0" speed="19.44" length="5.00" shape="0.00,-4.95 5.00,-4.95"/>
        <lane id="12_1" index="1" speed="19.44" length="5.00" shape="0.00,-1.65 5.00,-1.65"/>
    </edge>
    <edge id="21" from="2" to="1" priority="46">
        <lane id="21_0" index="0" speed="11.11" length="5.00" shape="5.00,4.95 0.00,4.95"/>
        <lane id="21_1" index="1" speed="11.11" length="5.00" shape="5.00,1.65 0.00,1.65"/>
    </edge>
    <edge id="23" from="2" to="3" priority="78">
        <lane id="23_0" index="0" speed="19.44" length="145.00" shape="5.00,-4.95 150.00,-4.95"/>
        <lane id="23_1" index="1" speed="19.44" length="145.00" shape="5.00,-1.65 150.00,-1.65"/>
    </edge>
    <edge id="32" from="3" to="2" priority="46">
        <lane id="32_0" index="0" speed="11.11" length="145.00" shape="150.00,4.95 5.00,4.95"/>
        <lane id="32_1" index="1" speed="11.11" length="145.00" shape="150.00,1.65 5.00,1.65"/>
    </edge>
    <edge id="34" from="3" to="4" priority="78">
        <lane id="34_0" index="0" speed="19.44" length="10.00" shape="150.00,-4.95 160.00,-4.95"/>
        <lane id="34_1" index="1" speed="19.44" length="10.00" shape="150.00,-1.65 160.00,-1.65"/>
    </edge>
    <edge id="43" from="4" to="3" priority="46">
        <lane id="43_0" index="0" speed="11.11" length="10.00" shape="160.00,4.95 150.00,4.95"/>
        <lane id="43_1" index="1" speed="11.11" length="10.00" shape="160.00,1.65 150.00,1.65"/>
    </edge>

    <tlLogic id="1" type="static" programID="0" offset="0">
        <phase duration="82" state="G"/>
        <phase duration="3" state="y"/>
        <phase duration="5" state="r"/>
    </tlLogic>

    <junction id="1" type="traffic_light" x="0.00" y="0.00" incLanes="21_0 21_1" intLanes=":1_0_0" shape="0.00,-0.05 0.00,6.55 0.00,0.05">
        <request index="0" response="0" foes="0" cont="0"/>
    </junction>
    <junction id="2" type="priority" x="5.00" y="0.00" incLanes="32_0 32_1 12_0 12_1" intLanes=":2_0_0 :2_0_1 :2_2_0 :2_3_0 :2_3_1" shape="5.00,6.55 5.00,-6.55 5.00,6.55">
        <request index="0" response="00000" foes="00000" cont="0"/>
        <request index="1" response="00000" foes="00000" cont="0"/>
        <request index="2" response="11000" foes="11000" cont="0"/>
        <request index="3" response="00000" foes="00100" cont="0"/>
        <request index="4" response="00000" foes="00100" cont="0"/>
    </junction>
    <junction id="3" type="priority" x="150.00" y="0.00" incLanes="43_0 43_1 23_0 23_1" intLanes=":3_0_0 :3_0_1 :3_2_0 :3_3_0 :3_3_1" shape="150.00,6.55 150.00,-6.55 150.00,6.55">
        <request index="0" response="00000" foes="00000" cont="0"/>
        <request index="1" response="00000" foes="00000" cont="0"/>
        <request index="2" response="11000" foes="11000" cont="0"/>
        <request index="3" response="00000" foes="00100" cont="0"/>
        <request index="4" response="00000" foes="00100" cont="0"/>
    </junction>
    <junction id="4" type="priority" x="160.00" y="0.00" incLanes="34_0 34_1" intLanes=":4_0_0" shape="160.00,0.05 160.00,-6.55 160.00,-0.05">
        <request index="0" response="0" foes="0" cont="0"/>
    </junction>

    <connection from="12" to="23" fromLane="0" toLane="0" via=":2_3_0" dir="s" state="M"/>
    <connection from="12" to="23" fromLane="1" toLane="1" via=":2_3_1" dir="s" state="M"/>
    <connection from="21" to="12" fromLane="1" toLane="1" via=":1_0_0" tl="1" linkIndex="0" dir="t" state="o"/>
    <connection from="23" to="34" fromLane="0" toLane="0" via=":3_3_0" dir="s" state="M"/>
    <connection from="23" to="34" fromLane="1" toLane="1" via=":3_3_1" dir="s" state="M"/>
    <connection from="32" to="21" fromLane="0" toLane="0" via=":2_0_0" dir="s" state="M"/>
    <connection from="32" to="21" fromLane="1" toLane="1" via=":2_0_1" dir="s" state="M"/>
    <connection from="32" to="23" fromLane="1" toLane="1" via=":2_2_0" dir="t" state="m"/>
    <connection from="34" to="43" fromLane="1" toLane="1" via=":4_0_0" dir="t" state="M"/>
    <connection from="43" to="32" fromLane="0" toLane="0" via=":3_0_0" dir="s" state="M"/>
    <connection from="43" to="32" fromLane="1" toLane="1" via=":3_0_1" dir="s" state="M"/>
    <connection from="43" to="34" fromLane="1" toLane="1" via=":3_2_0" dir="t" state="m"/>

    <connection from=":1_0" to="12" fromLane="0" toLane="1" dir="t" state="M"/>
    <connection from=":2_0" to="21" fromLane="0" toLane="0" dir="s" state="M"/>
    <connection from=":2_0" to="21" fromLane="1" toLane="1" dir="s" state="M"/>
    <connection from=":2_2" to="23" fromLane="0" toLane="1" dir="t" state="M"/>
    <connection from=":2_3" to="23" fromLane="0" toLane="0" dir="s" state="M"/>
    <connection from=":2_3" to="23" fromLane="1" toLane="1" dir="s" state="M"/>
    <connection from=":3_0" to="32" fromLane="0" toLane="0" dir="s" state="M"/>
    <connection from=":3_0" to="32" fromLane="1" toLane="1" dir="s" state="M"/>
    <connection from=":3_2" to="34" fromLane="0" toLane="1" dir="t" state="M"/>
    <connection from=":3_3" to="34" fromLane="0" toLane="0" dir="s" state="M"/>
    <connection from=":3_3" to="34" fromLane="1" toLane="1" dir="s" state="M"/>
    <connection from=":4_0" to="43" fromLane="0" toLane="1" dir="t" state="M"/>

</net>
