<routes>
        <vType id="type1" accel="0.8" decel="6.5" sigma="0.5" length="8" minGap="2.5" maxSpeed="6" color="red" guiShape="passenger"/>
        <vType id="type2" accel="0.9" decel="7.5" sigma="0.5" length="7" minGap="2.5" maxSpeed="11" color="green" guiShape="passenger"/>
        <vType id="type3" accel="1.1" decel="6.5" sigma="0.5" length="6" minGap="2.5" maxSpeed="16" color="blue" guiShape="passenger"/>
        <vType id="type4" accel="1.2" decel="5.5" sigma="0.5" length="6" minGap="2.5" maxSpeed="17" color="yellow" guiShape="passenger"/>
        <vType id="type5" accel="1.4" decel="4.5" sigma="0.5" length="4" minGap="2.5" maxSpeed="18" color="orange" guiShape="passenger"/>

        <route id="right" edges="12 23 34" />
<vehicle id="right_0" type="type3" route="right" depart="68" departLane="0" />
<vehicle id="right_1" type="type3" route="right" depart="76" departLane="0" />
<vehicle id="right_2" type="type3" route="right" depart="78" departLane="1" />
<vehicle id="right_3" type="type3" route="right" depart="105" departLane="1" />
<vehicle id="right_4" type="type5" route="right" depart="109" departLane="1" />
<vehicle id="right_5" type="type2" route="right" depart="119" departLane="1" />
<vehicle id="right_6" type="type1" route="right" depart="166" departLane="0" />
<vehicle id="right_7" type="type4" route="right" depart="213" departLane="1" />
<vehicle id="right_8" type="type4" route="right" depart="225" departLane="1" />
<vehicle id="right_9" type="type3" route="right" depart="233" departLane="0" />
<vehicle id="right_10" type="type4" route="right" depart="234" departLane="0" />
<vehicle id="right_11" type="type2" route="right" depart="236" departLane="0" />
<vehicle id="right_12" type="type4" route="right" depart="240" departLane="1" />
<vehicle id="right_13" type="type2" route="right" depart="244" departLane="1" />
<vehicle id="right_14" type="type2" route="right" depart="248" departLane="1" />
<vehicle id="right_15" type="type2" route="right" depart="270" departLane="1" />
<vehicle id="right_16" type="type3" route="right" depart="329" departLane="1" />
<vehicle id="right_17" type="type5" route="right" depart="382" departLane="1" />
<vehicle id="right_18" type="type3" route="right" depart="386" departLane="0" />
<vehicle id="right_19" type="type2" route="right" depart="401" departLane="1" />
<vehicle id="right_20" type="type5" route="right" depart="424" departLane="0" />
<vehicle id="right_21" type="type4" route="right" depart="433" departLane="1" />
<vehicle id="right_22" type="type1" route="right" depart="442" departLane="1" />
<vehicle id="right_23" type="type2" route="right" depart="486" departLane="1" />
<vehicle id="right_24" type="type5" route="right" depart="503" departLane="1" />
<vehicle id="right_25" type="type2" route="right" depart="514" departLane="0" />
<vehicle id="right_26" type="type5" route="right" depart="532" departLane="1" />
<vehicle id="right_27" type="type5" route="right" depart="545" departLane="0" />
<vehicle id="right_28" type="type4" route="right" depart="569" departLane="0" />
<vehicle id="right_29" type="type4" route="right" depart="587" departLane="1" />
<vehicle id="right_30" type="type4" route="right" depart="593" departLane="1" />
<vehicle id="right_31" type="type5" route="right" depart="616" departLane="0" />
<vehicle id="right_32" type="type2" route="right" depart="625" departLane="1" />
<vehicle id="right_33" type="type3" route="right" depart="657" departLane="0" />
<vehicle id="right_34" type="type4" route="right" depart="681" departLane="0" />
<vehicle id="right_35" type="type4" route="right" depart="688" departLane="0" />
<vehicle id="right_36" type="type1" route="right" depart="703" departLane="1" />
<vehicle id="right_37" type="type5" route="right" depart="713" departLane="0" />
<vehicle id="right_38" type="type5" route="right" depart="758" departLane="1" />
<vehicle id="right_39" type="type3" route="right" depart="759" departLane="1" />
<vehicle id="right_40" type="type5" route="right" depart="800" departLane="1" />
<vehicle id="right_41" type="type2" route="right" depart="827" departLane="0" />
<vehicle id="right_42" type="type3" route="right" depart="857" departLane="1" />
<vehicle id="right_43" type="type2" route="right" depart="872" departLane="1" />
<vehicle id="right_44" type="type5" route="right" depart="890" departLane="1" />
<vehicle id="right_45" type="type3" route="right" depart="899" departLane="0" />
</routes>
