<?xml version="1.0" encoding="UTF-8"?>
<nodes >
   <node id="1" x="0.0" y="0.0"  type="traffic_light"/>

   <node id="2" x="+10.0" y="0.0" type="priority"/>
   <node id="3" x="+780.0" y="0.0" type="priority"/>

   
   <node id="4" x="+790.0" y="0.0" type="priority"/>

 
</nodes>
