<?xml version="1.0" encoding="iso-8859-1"?>
<connections >
	<connection from="12" to="23"/>
	<connection from="23" to="34"/>

</connections>

